8EF6.R
 OpenBabel04282311423D

 41 45  0  0  1  0  0  0  0  0999 V2000
  138.1430  123.0590  135.0800 C   0  0  0  0  0  0  0  0  0  0  0  0
  138.3472  122.0773  134.7299 H   0  0  0  0  0  0  0  0  0  0  0  0
  139.5780  124.0890  133.2110 C   0  0  0  0  0  0  0  0  0  0  0  0
  139.0458  123.6119  132.3933 H   0  0  0  0  0  0  0  0  0  0  0  0
  140.4063  123.4430  133.4689 H   0  0  0  0  0  0  0  0  0  0  0  0
  138.6800  124.1670  134.4200 C   0  0  0  0  0  0  0  0  0  0  0  0
  138.3530  125.4170  134.9160 C   0  0  0  0  0  0  0  0  0  0  0  0
  138.8150  126.7430  134.3880 C   0  0  1  0  0  0  0  0  0  0  0  0
  140.2520  126.5740  133.8730 C   0  0  1  0  0  0  0  0  0  0  0  0
  140.5489  127.5013  133.3980 H   0  0  0  0  0  0  0  0  0  0  0  0
  137.9090  127.2890  133.2550 C   0  0  0  0  0  0  0  0  0  0  0  0
  138.1662  128.3344  133.0717 H   0  0  0  0  0  0  0  0  0  0  0  0
  136.8611  127.2523  133.5548 H   0  0  0  0  0  0  0  0  0  0  0  0
  138.0670  126.5430  131.9130 C   0  0  0  0  0  0  0  0  0  0  0  0
  137.6544  127.1618  131.1206 H   0  0  0  0  0  0  0  0  0  0  0  0
  137.3998  125.6893  131.9406 H   0  0  0  0  0  0  0  0  0  0  0  0
  139.5590  125.4040  130.3590 C   0  0  0  0  0  0  0  0  0  0  0  0
  139.1406  125.9601  129.5245 H   0  0  0  0  0  0  0  0  0  0  0  0
  139.0489  124.4483  130.3464 H   0  0  0  0  0  0  0  0  0  0  0  0
  140.5803  125.1948  130.0617 H   0  0  0  0  0  0  0  0  0  0  0  0
  137.3170  123.2390  136.2100 C   0  0  0  0  0  0  0  0  0  0  0  0
  136.9104  122.3942  136.7041 H   0  0  0  0  0  0  0  0  0  0  0  0
  137.0180  124.5220  136.6930 C   0  0  0  0  0  0  0  0  0  0  0  0
  137.5580  125.5980  136.0220 C   0  0  0  0  0  0  0  0  0  0  0  0
  138.5920  127.5400  135.6890 C   0  0  2  0  0  0  0  0  0  0  0  0
  138.3210  128.5673  135.4428 H   0  0  0  0  0  0  0  0  0  0  0  0
  139.8290  127.6260  136.6290 C   0  0  2  0  0  0  0  0  0  0  0  0
  140.1179  128.6689  136.6635 H   0  0  0  0  0  0  0  0  0  0  0  0
  141.0700  126.8570  136.2290 C   0  0  0  0  0  0  0  0  0  0  0  0
  141.7986  126.7167  136.9769 H   0  0  0  0  0  0  0  0  0  0  0  0
  141.2580  126.3710  134.9850 C   0  0  0  0  0  0  0  0  0  0  0  0
  142.1401  125.8441  134.7332 H   0  0  0  0  0  0  0  0  0  0  0  0
  140.1670  125.4760  132.7530 C   0  0  2  0  0  0  0  0  0  0  0  0
  141.1890  125.2746  132.4537 H   0  0  0  0  0  0  0  0  0  0  0  0
  139.4480  126.1200  131.6250 N   0  3  2  0  0  0  0  0  0  0  0  0
  139.9186  127.0085  131.4285 H   0  0  0  0  0  0  0  0  0  0  0  0
  136.2230  124.6870  137.7790 O   0  0  0  0  0  0  0  0  0  0  0  0
  136.1158  125.6481  137.9181 H   0  0  0  0  0  0  0  0  0  0  0  0
  139.4500  127.2900  137.9630 O   0  0  0  0  0  0  0  0  0  0  0  0
  138.9868  126.4346  137.9373 H   0  0  0  0  0  0  0  0  0  0  0  0
  137.4100  126.9260  136.3220 O   0  0  0  0  0  0  0  0  0  0  0  0
  1  2  1  0  0  0  0
  1  6  2  0  0  0  0
  1 21  1  0  0  0  0
  3  4  1  0  0  0  0
  3  5  1  0  0  0  0
  3  6  1  0  0  0  0
  3 33  1  0  0  0  0
  6  7  1  0  0  0  0
  7  8  1  0  0  0  0
  7 24  2  0  0  0  0
  8  9  1  6  0  0  0
  8 11  1  0  0  0  0
  9 10  1  0  0  0  0
  9 31  1  0  0  0  0
  9 33  1  6  0  0  0
 11 12  1  0  0  0  0
 11 13  1  0  0  0  0
 11 14  1  0  0  0  0
 14 15  1  0  0  0  0
 14 16  1  0  0  0  0
 14 35  1  0  0  0  0
 17 18  1  0  0  0  0
 17 19  1  0  0  0  0
 17 20  1  0  0  0  0
 17 35  1  0  0  0  0
 21 22  1  0  0  0  0
 21 23  2  0  0  0  0
 23 24  1  0  0  0  0
 23 37  1  0  0  0  0
 24 41  1  0  0  0  0
 25  8  1  6  0  0  0
 25 26  1  0  0  0  0
 25 41  1  0  0  0  0
 27 25  1  6  0  0  0
 27 28  1  0  0  0  0
 27 29  1  0  0  0  0
 27 39  1  0  0  0  0
 29 30  1  0  0  0  0
 29 31  2  0  0  0  0
 31 32  1  0  0  0  0
 33 34  1  0  0  0  0
 33 35  1  6  0  0  0
 35 36  1  6  0  0  0
 37 38  1  0  0  0  0
 39 40  1  0  0  0  0
M  CHG  1  35   1
M  END
$$$$
