7RFW.A Assembly 1 BIOMT operation 1
 OpenBabel04282311423D

 67 69  0  0  1  0  0  0  0  0999 V2000
    6.5780    1.4300   18.1500 C   0  0  0  0  0  0  0  0  0  0  0  0
    7.8530   -2.9870   19.9280 C   0  0  0  0  0  0  0  0  0  0  0  0
    9.4180   -0.5490   21.7920 C   0  0  0  0  0  0  0  0  0  0  0  0
   10.4330    2.2610   22.0540 C   0  0  0  0  0  0  0  0  0  0  0  0
   12.4400    4.9740   22.6730 C   0  0  0  0  0  0  0  0  0  0  0  0
    5.8180    0.9830   20.3780 C   0  0  0  0  0  0  0  0  0  0  0  0
    5.2460    2.2960   19.8820 C   0  0  0  0  0  0  0  0  0  0  0  0
   11.5240    1.0050   23.9810 C   0  0  0  0  0  0  0  0  0  0  0  0
    6.9860    0.7100   19.4210 C   0  0  1  0  0  0  0  0  0  0  0  0
   10.8570   -0.1550   21.9220 C   0  0  2  0  0  0  0  0  0  0  0  0
   12.0340   -0.3910   24.0260 C   0  0  1  0  0  0  0  0  0  0  0  0
   11.6200   -1.1070   22.7860 C   0  0  2  0  0  0  0  0  0  0  0  0
   13.1020   -0.9780   23.1170 C   0  0  0  0  0  0  0  0  0  0  0  0
   13.9230   -0.0590   22.2670 C   0  0  0  0  0  0  0  0  0  0  0  0
   13.8040   -2.1910   23.6050 C   0  0  0  0  0  0  0  0  0  0  0  0
    9.2070    5.2800   23.9920 C   0  0  0  0  0  0  0  0  0  0  0  0
    8.2090    3.0400   23.7360 C   0  0  0  0  0  0  0  0  0  0  0  0
    8.3820    4.5810   21.8180 C   0  0  0  0  0  0  0  0  0  0  0  0
    7.1730   -0.7570   19.0900 C   0  0  0  0  0  0  0  0  0  0  0  0
    7.7540   -1.5230   20.2630 C   0  0  2  0  0  0  0  0  0  0  0  0
   10.4610    3.5250   22.8670 C   0  0  2  0  0  0  0  0  0  0  0  0
   13.2480    5.7900   21.7080 C   0  0  0  0  0  0  0  0  0  0  0  0
    9.0680    4.0900   23.0720 C   0  0  0  0  0  0  0  0  0  0  0  0
    6.7550   -3.6490   19.7720 N   0  0  0  0  0  0  0  0  0  0  0  0
    5.4890    2.2410   18.4590 N   0  0  0  0  0  0  0  0  0  0  0  0
   10.8500    1.1070   22.6730 N   0  0  0  0  0  0  0  0  0  0  0  0
    9.1130   -1.1080   20.5680 N   0  0  0  0  0  0  0  0  0  0  0  0
   11.3220    4.3990   22.1040 N   0  0  0  0  0  0  0  0  0  0  0  0
    7.1580    1.3240   17.0780 O   0  0  0  0  0  0  0  0  0  0  0  0
    8.6370   -0.3740   22.7200 O   0  0  0  0  0  0  0  0  0  0  0  0
   10.0400    2.2690   20.8990 O   0  0  0  0  0  0  0  0  0  0  0  0
   12.7570    4.9150   23.8540 O   0  0  0  0  0  0  0  0  0  0  0  0
   13.2700    5.3740   20.4210 F   0  0  0  0  0  0  0  0  0  0  0  0
   14.5530    5.7550   22.0670 F   0  0  0  0  0  0  0  0  0  0  0  0
   12.8110    7.0790   21.6730 F   0  0  0  0  0  0  0  0  0  0  0  0
    6.1513    1.0552   21.4146 H   0  0  0  0  0  0  0  0  0  0  0  0
    5.0537    0.2271   20.2634 H   0  0  0  0  0  0  0  0  0  0  0  0
    4.1816    2.3768   20.1081 H   0  0  0  0  0  0  0  0  0  0  0  0
    5.7917    3.1391   20.3157 H   0  0  0  0  0  0  0  0  0  0  0  0
   10.8270    1.1762   24.7929 H   0  0  0  0  0  0  0  0  0  0  0  0
   12.3413    1.7079   24.0767 H   0  0  0  0  0  0  0  0  0  0  0  0
    7.9015    1.1736   19.7893 H   0  0  0  0  0  0  0  0  0  0  0  0
   11.3245   -0.0612   20.9556 H   0  0  0  0  0  0  0  0  0  0  0  0
   11.8387   -0.8975   24.9583 H   0  0  0  0  0  0  0  0  0  0  0  0
   11.1706   -2.0839   22.9076 H   0  0  0  0  0  0  0  0  0  0  0  0
   14.2984   -0.5726   21.3922 H   0  0  0  0  0  0  0  0  0  0  0  0
   14.7757    0.3050   22.8168 H   0  0  0  0  0  0  0  0  0  0  0  0
   13.3987    0.8167   21.9175 H   0  0  0  0  0  0  0  0  0  0  0  0
   14.3191   -2.6953   22.7999 H   0  0  0  0  0  0  0  0  0  0  0  0
   13.1212   -2.9067   24.0373 H   0  0  0  0  0  0  0  0  0  0  0  0
   14.5437   -1.9446   24.3544 H   0  0  0  0  0  0  0  0  0  0  0  0
    9.7834    6.0756   23.5169 H   0  0  0  0  0  0  0  0  0  0  0  0
    9.7008    4.9938   24.9219 H   0  0  0  0  0  0  0  0  0  0  0  0
    8.2234    5.6823   24.2400 H   0  0  0  0  0  0  0  0  0  0  0  0
    8.0067    2.2097   23.0587 H   0  0  0  0  0  0  0  0  0  0  0  0
    7.2501    3.4710   24.0264 H   0  0  0  0  0  0  0  0  0  0  0  0
    8.6945    2.6520   24.6335 H   0  0  0  0  0  0  0  0  0  0  0  0
    8.1781    3.7640   21.1322 H   0  0  0  0  0  0  0  0  0  0  0  0
    8.9650    5.3519   21.3205 H   0  0  0  0  0  0  0  0  0  0  0  0
    7.4192    5.0270   22.0713 H   0  0  0  0  0  0  0  0  0  0  0  0
    7.8643   -0.8477   18.2503 H   0  0  0  0  0  0  0  0  0  0  0  0
    6.2177   -1.1887   18.7867 H   0  0  0  0  0  0  0  0  0  0  0  0
    7.1094   -1.4161   21.1267 H   0  0  0  0  0  0  0  0  0  0  0  0
   10.8894    3.3435   23.8490 H   0  0  0  0  0  0  0  0  0  0  0  0
    5.2292    2.9864   17.8130 H   0  0  0  0  0  0  0  0  0  0  0  0
    9.8522   -1.2807   19.8869 H   0  0  0  0  0  0  0  0  0  0  0  0
   11.0422    4.6261   21.1439 H   0  0  0  0  0  0  0  0  0  0  0  0
  1  9  1  0  0  0  0
  1 25  1  0  0  0  0
  1 29  2  0  0  0  0
  2 20  1  0  0  0  0
  2 24  3  0  0  0  0
  3 10  1  0  0  0  0
  3 27  1  0  0  0  0
  3 30  2  0  0  0  0
  4 21  1  0  0  0  0
  4 26  1  0  0  0  0
  4 31  2  0  0  0  0
  5 22  1  0  0  0  0
  5 28  1  0  0  0  0
  5 32  2  0  0  0  0
  6  7  1  0  0  0  0
  6  9  1  0  0  0  0
  6 36  1  0  0  0  0
  6 37  1  0  0  0  0
  7 25  1  0  0  0  0
  7 38  1  0  0  0  0
  7 39  1  0  0  0  0
  8 11  1  0  0  0  0
  8 26  1  0  0  0  0
  8 40  1  0  0  0  0
  8 41  1  0  0  0  0
  9 19  1  0  0  0  0
  9 42  1  1  0  0  0
 10 12  1  1  0  0  0
 10 26  1  0  0  0  0
 10 43  1  0  0  0  0
 11 12  1  6  0  0  0
 11 13  1  0  0  0  0
 11 44  1  0  0  0  0
 12 13  1  0  0  0  0
 12 45  1  1  0  0  0
 13 14  1  0  0  0  0
 13 15  1  0  0  0  0
 14 46  1  0  0  0  0
 14 47  1  0  0  0  0
 14 48  1  0  0  0  0
 15 49  1  0  0  0  0
 15 50  1  0  0  0  0
 15 51  1  0  0  0  0
 16 23  1  0  0  0  0
 16 52  1  0  0  0  0
 16 53  1  0  0  0  0
 16 54  1  0  0  0  0
 17 23  1  0  0  0  0
 17 55  1  0  0  0  0
 17 56  1  0  0  0  0
 17 57  1  0  0  0  0
 18 23  1  0  0  0  0
 18 58  1  0  0  0  0
 18 59  1  0  0  0  0
 18 60  1  0  0  0  0
 19 20  1  0  0  0  0
 19 61  1  0  0  0  0
 19 62  1  0  0  0  0
 20 27  1  0  0  0  0
 20 63  1  1  0  0  0
 21 23  1  0  0  0  0
 21 28  1  0  0  0  0
 21 64  1  1  0  0  0
 22 33  1  0  0  0  0
 22 34  1  0  0  0  0
 22 35  1  0  0  0  0
 25 65  1  0  0  0  0
 27 66  1  0  0  0  0
 28 67  1  0  0  0  0
M  END
$$$$
